60
C60
C        8.11191000       6.85813392      10.16390264
C        9.27981000       6.85813392       9.41178337
C        7.26629000       8.02930846      10.17348074
C        7.62454000       9.14909991       9.43263294
C        5.88932000       7.58109554      10.18808603
C        4.92426000       8.27516409       9.46597109
C        5.88932000       6.13522522      10.18808603
C        4.92426000       5.44115667       9.46597109
C        7.26629000       5.68701230      10.17348074
C        7.62454000       4.56722085       9.43263294
C        9.65145000       8.02422836       8.64606425
C        8.84630000       9.15052868       8.65876450
C        9.65145000       5.69209240       8.64606425
C        8.84625000       4.56579207       8.65876450
C       10.24700000       7.57781464       7.40646713
C       10.02910000       8.27288863       6.22587324
C       10.24700000       6.13845320       7.40646713
C       10.02910000       5.44337921       6.22587324
C        6.62217000       9.86375344       8.68040784
C        5.29907000       9.44236980       8.69914070
C        8.60241000       9.86428262       7.42726378
C        9.18561000       9.44289898       6.23735638
C        7.22686000      10.31016716       7.44541455
C        6.48924000      10.31027300       6.27074745
C        3.92131000       7.55283749       8.71824399
C        3.92131000       6.16343035       8.71824399
C        4.53050000       9.44295189       7.47880562
C        5.11365000       9.86444137       6.28889822
C        3.68715000       8.27288863       7.49034168
C        3.46918000       7.57781464       6.30974779
C        5.29907000       4.27389804       8.69914070
C        6.62217000       3.85251440       8.68040784
C        3.68715000       5.44337921       7.49034168
C        3.46918000       6.13845320       6.30974779
C        4.53050000       4.27331595       7.47880562
C        5.11370000       3.85187938       6.28895114
C        7.22686000       3.40615360       7.44541455
C        6.48924000       3.40599484       6.27074745
C        8.60241000       3.85203814       7.42726378
C        9.18561000       4.27336886       6.23735638
C        8.41709000       9.44236980       5.01702130
C        7.09399000       9.86375344       5.03580709
C        9.79491000       7.55283749       4.99791801
C        9.79491000       6.16343035       4.99791801
C        8.79196000       8.27516409       4.25019091
C        7.82690000       7.58109554       3.52812889
C        4.86986000       9.15058160       5.05745042
C        4.06477000       8.02422836       5.07015067
C        6.09162000       9.14904699       4.28358198
C        6.44987000       8.02930846       3.54273418
C        4.06477000       5.69203948       5.07015067
C        4.86986000       4.56568624       5.05745042
C        4.43641000       6.85813392       4.30448447
C        5.60430000       6.85813392       3.55231228
C        7.09399000       3.85251440       5.03580709
C        8.41709000       4.27389804       5.01702130
C        6.09162000       4.56722085       4.28358198
C        6.44987000       5.68695938       3.54273418
C        8.79196000       5.44115667       4.25019091
C        7.82690000       6.13522522       3.52812889
lattice
9.525186    9.525186    9.525186

