 200 
Graphene
 C  0.000000000000e+00  0.000000000000e+00  0.000000000000e+00 
 C  1.212435565298e+00  2.100000000000e+00  0.000000000000e+00 
 C  2.424871130596e+00  4.200000000000e+00  0.000000000000e+00 
 C  3.637306695895e+00  6.300000000000e+00  0.000000000000e+00 
 C  4.849742261193e+00  8.400000000000e+00  0.000000000000e+00 
 C  6.062177826491e+00  1.050000000000e+01  0.000000000000e+00 
 C  7.274613391789e+00  1.260000000000e+01  0.000000000000e+00 
 C  8.487048957087e+00  1.470000000000e+01  0.000000000000e+00 
 C  9.699484522386e+00  1.680000000000e+01  0.000000000000e+00 
 C  1.091192008768e+01  1.890000000000e+01  0.000000000000e+00 
 C  2.424871130596e+00  0.000000000000e+00  0.000000000000e+00 
 C  3.637306695895e+00  2.100000000000e+00  0.000000000000e+00 
 C  4.849742261193e+00  4.200000000000e+00  0.000000000000e+00 
 C  6.062177826491e+00  6.300000000000e+00  0.000000000000e+00 
 C  7.274613391789e+00  8.400000000000e+00  0.000000000000e+00 
 C  8.487048957087e+00  1.050000000000e+01  0.000000000000e+00 
 C  9.699484522386e+00  1.260000000000e+01  0.000000000000e+00 
 C  1.091192008768e+01  1.470000000000e+01  0.000000000000e+00 
 C  1.212435565298e+01  1.680000000000e+01  0.000000000000e+00 
 C  1.333679121828e+01  1.890000000000e+01  0.000000000000e+00 
 C  4.849742261193e+00  0.000000000000e+00  0.000000000000e+00 
 C  6.062177826491e+00  2.100000000000e+00  0.000000000000e+00 
 C  7.274613391789e+00  4.200000000000e+00  0.000000000000e+00 
 C  8.487048957087e+00  6.300000000000e+00  0.000000000000e+00 
 C  9.699484522386e+00  8.400000000000e+00  0.000000000000e+00 
 C  1.091192008768e+01  1.050000000000e+01  0.000000000000e+00 
 C  1.212435565298e+01  1.260000000000e+01  0.000000000000e+00 
 C  1.333679121828e+01  1.470000000000e+01  0.000000000000e+00 
 C  1.454922678358e+01  1.680000000000e+01  0.000000000000e+00 
 C  1.576166234888e+01  1.890000000000e+01  0.000000000000e+00 
 C  7.274613391789e+00  0.000000000000e+00  0.000000000000e+00 
 C  8.487048957087e+00  2.100000000000e+00  0.000000000000e+00 
 C  9.699484522386e+00  4.200000000000e+00  0.000000000000e+00 
 C  1.091192008768e+01  6.300000000000e+00  0.000000000000e+00 
 C  1.212435565298e+01  8.400000000000e+00  0.000000000000e+00 
 C  1.333679121828e+01  1.050000000000e+01  0.000000000000e+00 
 C  1.454922678358e+01  1.260000000000e+01  0.000000000000e+00 
 C  1.576166234888e+01  1.470000000000e+01  0.000000000000e+00 
 C  1.697409791417e+01  1.680000000000e+01  0.000000000000e+00 
 C  1.818653347947e+01  1.890000000000e+01  0.000000000000e+00 
 C  9.699484522386e+00  0.000000000000e+00  0.000000000000e+00 
 C  1.091192008768e+01  2.100000000000e+00  0.000000000000e+00 
 C  1.212435565298e+01  4.200000000000e+00  0.000000000000e+00 
 C  1.333679121828e+01  6.300000000000e+00  0.000000000000e+00 
 C  1.454922678358e+01  8.400000000000e+00  0.000000000000e+00 
 C  1.576166234888e+01  1.050000000000e+01  0.000000000000e+00 
 C  1.697409791417e+01  1.260000000000e+01  0.000000000000e+00 
 C  1.818653347947e+01  1.470000000000e+01  0.000000000000e+00 
 C  1.939896904477e+01  1.680000000000e+01  0.000000000000e+00 
 C  2.061140461007e+01  1.890000000000e+01  0.000000000000e+00 
 C  1.212435565298e+01  0.000000000000e+00  0.000000000000e+00 
 C  1.333679121828e+01  2.100000000000e+00  0.000000000000e+00 
 C  1.454922678358e+01  4.200000000000e+00  0.000000000000e+00 
 C  1.576166234888e+01  6.300000000000e+00  0.000000000000e+00 
 C  1.697409791417e+01  8.400000000000e+00  0.000000000000e+00 
 C  1.818653347947e+01  1.050000000000e+01  0.000000000000e+00 
 C  1.939896904477e+01  1.260000000000e+01  0.000000000000e+00 
 C  2.061140461007e+01  1.470000000000e+01  0.000000000000e+00 
 C  2.182384017537e+01  1.680000000000e+01  0.000000000000e+00 
 C  2.303627574067e+01  1.890000000000e+01  0.000000000000e+00 
 C  1.454922678358e+01  0.000000000000e+00  0.000000000000e+00 
 C  1.576166234888e+01  2.100000000000e+00  0.000000000000e+00 
 C  1.697409791417e+01  4.200000000000e+00  0.000000000000e+00 
 C  1.818653347947e+01  6.300000000000e+00  0.000000000000e+00 
 C  1.939896904477e+01  8.400000000000e+00  0.000000000000e+00 
 C  2.061140461007e+01  1.050000000000e+01  0.000000000000e+00 
 C  2.182384017537e+01  1.260000000000e+01  0.000000000000e+00 
 C  2.303627574067e+01  1.470000000000e+01  0.000000000000e+00 
 C  2.424871130596e+01  1.680000000000e+01  0.000000000000e+00 
 C  2.546114687126e+01  1.890000000000e+01  0.000000000000e+00 
 C  1.697409791417e+01  0.000000000000e+00  0.000000000000e+00 
 C  1.818653347947e+01  2.100000000000e+00  0.000000000000e+00 
 C  1.939896904477e+01  4.200000000000e+00  0.000000000000e+00 
 C  2.061140461007e+01  6.300000000000e+00  0.000000000000e+00 
 C  2.182384017537e+01  8.400000000000e+00  0.000000000000e+00 
 C  2.303627574067e+01  1.050000000000e+01  0.000000000000e+00 
 C  2.424871130596e+01  1.260000000000e+01  0.000000000000e+00 
 C  2.546114687126e+01  1.470000000000e+01  0.000000000000e+00 
 C  2.667358243656e+01  1.680000000000e+01  0.000000000000e+00 
 C  2.788601800186e+01  1.890000000000e+01  0.000000000000e+00 
 C  1.939896904477e+01  0.000000000000e+00  0.000000000000e+00 
 C  2.061140461007e+01  2.100000000000e+00  0.000000000000e+00 
 C  2.182384017537e+01  4.200000000000e+00  0.000000000000e+00 
 C  2.303627574067e+01  6.300000000000e+00  0.000000000000e+00 
 C  2.424871130596e+01  8.400000000000e+00  0.000000000000e+00 
 C  2.546114687126e+01  1.050000000000e+01  0.000000000000e+00 
 C  2.667358243656e+01  1.260000000000e+01  0.000000000000e+00 
 C  2.788601800186e+01  1.470000000000e+01  0.000000000000e+00 
 C  2.909845356716e+01  1.680000000000e+01  0.000000000000e+00 
 C  3.031088913246e+01  1.890000000000e+01  0.000000000000e+00 
 C  2.182384017537e+01  0.000000000000e+00  0.000000000000e+00 
 C  2.303627574067e+01  2.100000000000e+00  0.000000000000e+00 
 C  2.424871130596e+01  4.200000000000e+00  0.000000000000e+00 
 C  2.546114687126e+01  6.300000000000e+00  0.000000000000e+00 
 C  2.667358243656e+01  8.400000000000e+00  0.000000000000e+00 
 C  2.788601800186e+01  1.050000000000e+01  0.000000000000e+00 
 C  2.909845356716e+01  1.260000000000e+01  0.000000000000e+00 
 C  3.031088913246e+01  1.470000000000e+01  0.000000000000e+00 
 C  3.152332469775e+01  1.680000000000e+01  0.000000000000e+00 
 C  3.273576026305e+01  1.890000000000e+01  0.000000000000e+00 
 C  0.000000000000e+00  1.400000000000e+00  0.000000000000e+00 
 C  1.212435565298e+00  3.500000000000e+00  0.000000000000e+00 
 C  2.424871130596e+00  5.600000000000e+00  0.000000000000e+00 
 C  3.637306695895e+00  7.700000000000e+00  0.000000000000e+00 
 C  4.849742261193e+00  9.800000000000e+00  0.000000000000e+00 
 C  6.062177826491e+00  1.190000000000e+01  0.000000000000e+00 
 C  7.274613391789e+00  1.400000000000e+01  0.000000000000e+00 
 C  8.487048957087e+00  1.610000000000e+01  0.000000000000e+00 
 C  9.699484522386e+00  1.820000000000e+01  0.000000000000e+00 
 C  1.091192008768e+01  2.030000000000e+01  0.000000000000e+00 
 C  2.424871130596e+00  1.400000000000e+00  0.000000000000e+00 
 C  3.637306695895e+00  3.500000000000e+00  0.000000000000e+00 
 C  4.849742261193e+00  5.600000000000e+00  0.000000000000e+00 
 C  6.062177826491e+00  7.700000000000e+00  0.000000000000e+00 
 C  7.274613391789e+00  9.800000000000e+00  0.000000000000e+00 
 C  8.487048957087e+00  1.190000000000e+01  0.000000000000e+00 
 C  9.699484522386e+00  1.400000000000e+01  0.000000000000e+00 
 C  1.091192008768e+01  1.610000000000e+01  0.000000000000e+00 
 C  1.212435565298e+01  1.820000000000e+01  0.000000000000e+00 
 C  1.333679121828e+01  2.030000000000e+01  0.000000000000e+00 
 C  4.849742261193e+00  1.400000000000e+00  0.000000000000e+00 
 C  6.062177826491e+00  3.500000000000e+00  0.000000000000e+00 
 C  7.274613391789e+00  5.600000000000e+00  0.000000000000e+00 
 C  8.487048957087e+00  7.700000000000e+00  0.000000000000e+00 
 C  9.699484522386e+00  9.800000000000e+00  0.000000000000e+00 
 C  1.091192008768e+01  1.190000000000e+01  0.000000000000e+00 
 C  1.212435565298e+01  1.400000000000e+01  0.000000000000e+00 
 C  1.333679121828e+01  1.610000000000e+01  0.000000000000e+00 
 C  1.454922678358e+01  1.820000000000e+01  0.000000000000e+00 
 C  1.576166234888e+01  2.030000000000e+01  0.000000000000e+00 
 C  7.274613391789e+00  1.400000000000e+00  0.000000000000e+00 
 C  8.487048957087e+00  3.500000000000e+00  0.000000000000e+00 
 C  9.699484522386e+00  5.600000000000e+00  0.000000000000e+00 
 C  1.091192008768e+01  7.700000000000e+00  0.000000000000e+00 
 C  1.212435565298e+01  9.800000000000e+00  0.000000000000e+00 
 C  1.333679121828e+01  1.190000000000e+01  0.000000000000e+00 
 C  1.454922678358e+01  1.400000000000e+01  0.000000000000e+00 
 C  1.576166234888e+01  1.610000000000e+01  0.000000000000e+00 
 C  1.697409791417e+01  1.820000000000e+01  0.000000000000e+00 
 C  1.818653347947e+01  2.030000000000e+01  0.000000000000e+00 
 C  9.699484522386e+00  1.400000000000e+00  0.000000000000e+00 
 C  1.091192008768e+01  3.500000000000e+00  0.000000000000e+00 
 C  1.212435565298e+01  5.600000000000e+00  0.000000000000e+00 
 C  1.333679121828e+01  7.700000000000e+00  0.000000000000e+00 
 C  1.454922678358e+01  9.800000000000e+00  0.000000000000e+00 
 C  1.576166234888e+01  1.190000000000e+01  0.000000000000e+00 
 C  1.697409791417e+01  1.400000000000e+01  0.000000000000e+00 
 C  1.818653347947e+01  1.610000000000e+01  0.000000000000e+00 
 C  1.939896904477e+01  1.820000000000e+01  0.000000000000e+00 
 C  2.061140461007e+01  2.030000000000e+01  0.000000000000e+00 
 C  1.212435565298e+01  1.400000000000e+00  0.000000000000e+00 
 C  1.333679121828e+01  3.500000000000e+00  0.000000000000e+00 
 C  1.454922678358e+01  5.600000000000e+00  0.000000000000e+00 
 C  1.576166234888e+01  7.700000000000e+00  0.000000000000e+00 
 C  1.697409791417e+01  9.800000000000e+00  0.000000000000e+00 
 C  1.818653347947e+01  1.190000000000e+01  0.000000000000e+00 
 C  1.939896904477e+01  1.400000000000e+01  0.000000000000e+00 
 C  2.061140461007e+01  1.610000000000e+01  0.000000000000e+00 
 C  2.182384017537e+01  1.820000000000e+01  0.000000000000e+00 
 C  2.303627574067e+01  2.030000000000e+01  0.000000000000e+00 
 C  1.454922678358e+01  1.400000000000e+00  0.000000000000e+00 
 C  1.576166234888e+01  3.500000000000e+00  0.000000000000e+00 
 C  1.697409791417e+01  5.600000000000e+00  0.000000000000e+00 
 C  1.818653347947e+01  7.700000000000e+00  0.000000000000e+00 
 C  1.939896904477e+01  9.800000000000e+00  0.000000000000e+00 
 C  2.061140461007e+01  1.190000000000e+01  0.000000000000e+00 
 C  2.182384017537e+01  1.400000000000e+01  0.000000000000e+00 
 C  2.303627574067e+01  1.610000000000e+01  0.000000000000e+00 
 C  2.424871130596e+01  1.820000000000e+01  0.000000000000e+00 
 C  2.546114687126e+01  2.030000000000e+01  0.000000000000e+00 
 C  1.697409791417e+01  1.400000000000e+00  0.000000000000e+00 
 C  1.818653347947e+01  3.500000000000e+00  0.000000000000e+00 
 C  1.939896904477e+01  5.600000000000e+00  0.000000000000e+00 
 C  2.061140461007e+01  7.700000000000e+00  0.000000000000e+00 
 C  2.182384017537e+01  9.800000000000e+00  0.000000000000e+00 
 C  2.303627574067e+01  1.190000000000e+01  0.000000000000e+00 
 C  2.424871130596e+01  1.400000000000e+01  0.000000000000e+00 
 C  2.546114687126e+01  1.610000000000e+01  0.000000000000e+00 
 C  2.667358243656e+01  1.820000000000e+01  0.000000000000e+00 
 C  2.788601800186e+01  2.030000000000e+01  0.000000000000e+00 
 C  1.939896904477e+01  1.400000000000e+00  0.000000000000e+00 
 C  2.061140461007e+01  3.500000000000e+00  0.000000000000e+00 
 C  2.182384017537e+01  5.600000000000e+00  0.000000000000e+00 
 C  2.303627574067e+01  7.700000000000e+00  0.000000000000e+00 
 C  2.424871130596e+01  9.800000000000e+00  0.000000000000e+00 
 C  2.546114687126e+01  1.190000000000e+01  0.000000000000e+00 
 C  2.667358243656e+01  1.400000000000e+01  0.000000000000e+00 
 C  2.788601800186e+01  1.610000000000e+01  0.000000000000e+00 
 C  2.909845356716e+01  1.820000000000e+01  0.000000000000e+00 
 C  3.031088913246e+01  2.030000000000e+01  0.000000000000e+00 
 C  2.182384017537e+01  1.400000000000e+00  0.000000000000e+00 
 C  2.303627574067e+01  3.500000000000e+00  0.000000000000e+00 
 C  2.424871130596e+01  5.600000000000e+00  0.000000000000e+00 
 C  2.546114687126e+01  7.700000000000e+00  0.000000000000e+00 
 C  2.667358243656e+01  9.800000000000e+00  0.000000000000e+00 
 C  2.788601800186e+01  1.190000000000e+01  0.000000000000e+00 
 C  2.909845356716e+01  1.400000000000e+01  0.000000000000e+00 
 C  3.031088913246e+01  1.610000000000e+01  0.000000000000e+00 
 C  3.152332469775e+01  1.820000000000e+01  0.000000000000e+00 
 C  3.273576026305e+01  2.030000000000e+01  0.000000000000e+00 
lattice
2.424871130596e+01  2.424871130596e+01  9.699484522386e+00
